5
 IRC net coordinate: -1.70553 scf energy: -152.160842709
O	0.172571     -1.149049     -0.252786
H	-0.021121     -1.281406     0.694978
H	0.648504     0.746252     -0.132042
O	-0.161818     1.119892     0.248275
H	-0.785677     1.058490     -0.489427
5
 IRC net coordinate: -1.60585 scf energy: -152.160783888
O	0.172937     -1.142466     -0.251350
H	-0.017985     -1.286995     0.694384
H	0.642134     0.718543     -0.132913
O	-0.162027     1.114393     0.246945
H	-0.793685     1.079901     -0.485035
5
 IRC net coordinate: -1.51186 scf energy: -152.160699795
O	0.172351     -1.136958     -0.249871
H	-0.009674     -1.292608     0.696049
H	0.629454     0.684779     -0.133902
O	-0.161169     1.109494     0.245549
H	-0.789958     1.101112     -0.489561
5
 IRC net coordinate: -1.41112 scf energy: -152.160580592
O	0.171867     -1.130830     -0.248340
H	-0.002701     -1.299100     0.696926
H	0.615881     0.650643     -0.134531
O	-0.160323     1.104347     0.244070
H	-0.787403     1.118370     -0.492361
5
 IRC net coordinate: -1.31012 scf energy: -152.160421044
O	0.171493     -1.124392     -0.246814
H	0.002884     -1.306208     0.697073
H	0.601355     0.615894     -0.134661
O	-0.159482     1.099245     0.242584
H	-0.785653     1.132506     -0.493971
5
 IRC net coordinate: -1.20912 scf energy: -152.160214802
O	0.171226     -1.117900     -0.245330
H	0.007147     -1.313788     0.696582
H	0.585735     0.580287     -0.134229
O	-0.158595     1.094338     0.241102
H	-0.784700     1.144101     -0.494577
5
 IRC net coordinate: -1.10829 scf energy: -152.159956542
O	0.171104     -1.111514     -0.243916
H	0.010219     -1.321699     0.695392
H	0.568707     0.543794     -0.132929
O	-0.157730     1.089832     0.239666
H	-0.784821     1.153761     -0.494032
5
 IRC net coordinate: -1.00787 scf energy: -152.159636249
O	0.171081     -1.105652     -0.242645
H	0.011526     -1.330137     0.693679
H	0.549964     0.505470     -0.130703
O	-0.156799     1.085855     0.238298
H	-0.786338     1.161220     -0.492292
5
 IRC net coordinate: -0.90731 scf energy: -152.159283205
O	0.171129     -1.099898     -0.241328
H	0.012724     -1.338368     0.691450
H	0.523203     0.472233     -0.123709
O	-0.155054     1.081712     0.236428
H	-0.787821     1.168199     -0.490007
5
 IRC net coordinate: -0.80571 scf energy: -152.158826586
O	0.171309     -1.093516     -0.240046
H	0.013331     -1.344737     0.689341
H	0.501929     0.436282     -0.119105
O	-0.153867     1.077595     0.234855
H	-0.790049     1.173556     -0.487452
5
 IRC net coordinate: -0.70451 scf energy: -152.158288364
O	0.171551     -1.087408     -0.238860
H	0.013558     -1.350366     0.687146
H	0.479543     0.399880     -0.113221
O	-0.152625     1.073732     0.233273
H	-0.792742     1.178276     -0.484443
5
 IRC net coordinate: -0.60355 scf energy: -152.157659927
O	0.171849     -1.081587     -0.237785
H	0.013631     -1.354963     0.685016
H	0.456230     0.362812     -0.106107
O	-0.151344     1.070123     0.231697
H	-0.795717     1.182458     -0.481168
5
 IRC net coordinate: -0.50284 scf energy: -152.156929269
O	0.172210     -1.076064     -0.236841
H	0.013757     -1.358276     0.683086
H	0.432053     0.324526     -0.098085
O	-0.150041     1.066800     0.230162
H	-0.798709     1.186083     -0.477904
5
 IRC net coordinate: -0.40231 scf energy: -152.156077379
O	0.172619     -1.070716     -0.236015
H	0.014045     -1.360125     0.681412
H	0.407237     0.284323     -0.089840
O	-0.148704     1.063702     0.228706
H	-0.801481     1.188889     -0.475091
5
 IRC net coordinate: -0.30266 scf energy: -152.155152369
O	0.173077     -1.065843     -0.235337
H	0.014566     -1.360590     0.679884
H	0.387773     0.237648     -0.085101
O	-0.147781     1.061610     0.227698
H	-0.803976     1.190727     -0.473411
5
 IRC net coordinate: -0.20276 scf energy: -152.154156911
O	0.173498     -1.062152     -0.234878
H	0.015227     -1.360008     0.678660
H	0.380003     0.186031     -0.086408
O	-0.147618     1.061060     0.227363
H	-0.806033     1.191770     -0.472889
5
 IRC net coordinate: -0.10176 scf energy: -152.153258682
O	0.173827     -1.059636     -0.234593
H	0.015909     -1.359089     0.677591
H	0.382080     0.133560     -0.092045
O	-0.148010     1.061726     0.227501
H	-0.807733     1.192368     -0.472981
5
 IRC net coordinate: 0.0 scf energy: -152.15288174
O	0.182968     0.725945     -0.425791
H	0.025596     0.425847     0.485275
H	0.399575     1.865934     -0.291222
O	-0.139887     2.847066     0.036557
H	-0.800348     2.976844     -0.664694
5
 IRC net coordinate: 0.10174 scf energy: -152.153238318
O	0.174346     -1.056252     -0.234272
H	0.017520     -1.356996     0.675676
H	0.399307     0.030530     -0.107682
O	-0.149527     1.064628     0.228330
H	-0.810726     1.193542     -0.473690
5
 IRC net coordinate: 0.20279 scf energy: -152.154128461
O	0.174483     -1.055468     -0.234255
H	0.018544     -1.355836     0.674836
H	0.414568     -0.019186     -0.116958
O	-0.150598     1.066840     0.228981
H	-0.812089     1.194021     -0.474274
5
 IRC net coordinate: 0.30272 scf energy: -152.155125608
O	0.174414     -1.056018     -0.234515
H	0.019997     -1.354058     0.674433
H	0.439210     -0.064209     -0.126769
O	-0.152096     1.070094     0.229930
H	-0.813378     1.194191     -0.475001
5
 IRC net coordinate: 0.40233 scf energy: -152.156052392
O	0.174001     -1.058342     -0.235166
H	0.022048     -1.351281     0.674908
H	0.474326     -0.099806     -0.136155
O	-0.153971     1.074449     0.231201
H	-0.814335     1.193465     -0.476142
5
 IRC net coordinate: 0.50285 scf energy: -152.156907653
O	0.173415     -1.061829     -0.236125
H	0.024495     -1.347409     0.676360
H	0.513177     -0.126868     -0.144292
O	-0.155923     1.079298     0.232633
H	-0.814655     1.191540     -0.477653
5
 IRC net coordinate: 0.60355 scf energy: -152.157640991
O	0.172903     -1.065522     -0.237193
H	0.027040     -1.342670     0.678192
H	0.550705     -0.152362     -0.152108
O	-0.157849     1.084337     0.234162
H	-0.814416     1.188305     -0.479596
5
 IRC net coordinate: 0.7045 scf energy: -152.158271707
O	0.172499     -1.069476     -0.238341
H	0.029390     -1.337446     0.680090
H	0.586671     -0.177119     -0.160139
O	-0.159776     1.089690     0.235807
H	-0.813743     1.183882     -0.481871
5
 IRC net coordinate: 0.80569 scf energy: -152.158811723
O	0.172218     -1.073650     -0.239539
H	0.031190     -1.331897     0.681921
H	0.621088     -0.201726     -0.168689
O	-0.161717     1.095341     0.237554
H	-0.812826     1.178440     -0.484241
5
 IRC net coordinate: 0.90728 scf energy: -152.159269842
O	0.172086     -1.078037     -0.240782
H	0.032146     -1.326011     0.683617
H	0.653854     -0.226452     -0.177771
O	-0.163671     1.101282     0.239383
H	-0.811878     1.172177     -0.486451
5
 IRC net coordinate: 1.00783 scf energy: -152.159624337
O	0.171378     -1.082695     -0.242028
H	0.031735     -1.318933     0.685576
H	0.691168     -0.246314     -0.187054
O	-0.165267     1.106688     0.241121
H	-0.810739     1.163938     -0.488701
5
 IRC net coordinate: 1.10827 scf energy: -152.159947444
O	0.171507     -1.086841     -0.243187
H	0.030949     -1.311390     0.687116
H	0.721607     -0.274415     -0.197388
O	-0.166881     1.112237     0.242800
H	-0.809362     1.155530     -0.490474
5
 IRC net coordinate: 1.20913 scf energy: -152.160208116
O	0.171844     -1.091449     -0.244479
H	0.027725     -1.302374     0.688498
H	0.749606     -0.301493     -0.207689
O	-0.168549     1.118312     0.244608
H	-0.809351     1.146969     -0.490936
5
 IRC net coordinate: 1.31013 scf energy: -152.160416292
O	0.172277     -1.096425     -0.245832
H	0.022463     -1.292054     0.689575
H	0.775846     -0.328386     -0.218093
O	-0.170101     1.124518     0.246413
H	-0.810073     1.138279     -0.490220
5
 IRC net coordinate: 1.4111 scf energy: -152.160577079
O	0.172824     -1.101560     -0.247231
H	0.015152     -1.279818     0.690372
H	0.800650     -0.355006     -0.228401
O	-0.171525     1.130705     0.248199
H	-0.811743     1.129551     -0.488283
5
 IRC net coordinate: 1.51179 scf energy: -152.160696799
O	0.173409     -1.106758     -0.248643
H	0.005351     -1.265202     0.690749
H	0.824130     -0.381458     -0.238555
O	-0.172742     1.136662     0.249917
H	-0.814455     1.120962     -0.484964
5
 IRC net coordinate: 1.60555 scf energy: -152.160781288
O	0.173968     -1.111754     -0.249977
H	-0.007929     -1.247604     0.690460
H	0.846436     -0.407851     -0.248391
O	-0.173674     1.142108     0.251499
H	-0.818240     1.112857     -0.480212
5
 IRC net coordinate: 1.7052 scf energy: -152.160840599
O	0.175629     -1.116894     -0.251832
H	-0.007606     -1.224375     0.692669
H	0.861417     -0.430886     -0.254384
O	-0.175815     1.148189     0.253614
H	-0.818795     1.106781     -0.479955
5
 IRC net coordinate: 1.77747 scf energy: -152.160881852
O	0.176622     -1.120939     -0.253105
H	-0.017049     -1.200379     0.693104
H	0.883096     -0.455275     -0.269990
O	-0.177237     1.152902     0.255238
H	-0.824583     1.098856     -0.473384
5
 IRC net coordinate: 1.84187 scf energy: -152.160902213
O	0.179600     -1.122643     -0.253207
H	-0.037566     -1.177932     0.688553
H	0.898324     -0.474036     -0.275159
O	-0.178350     1.154247     0.255392
H	-0.831535     1.097128     -0.467883
5
 IRC net coordinate: 1.92868 scf energy: -152.160917867
O	0.179872     -1.125751     -0.254777
H	-0.040967     -1.158180     0.687104
H	0.914352     -0.492845     -0.280908
O	-0.179529     1.153859     0.256094
H	-0.832727     1.093140     -0.465901
